@<TRIPOS>MOLECULE
CYH
   18    18     1     0     0
SMALL
bcc


@<TRIPOS>ATOM
      1 C            1.2710     0.7340     0.2290 c3         1 CYH      -0.076400
      2 C1           0.0000     1.4670    -0.2290 c3         1 CYH      -0.076400
      3 C2           1.2710    -0.7340    -0.2290 c3         1 CYH      -0.076400
      4 C3          -1.2710     0.7340     0.2290 c3         1 CYH      -0.076400
      5 H            0.0000     1.5350    -1.3280 hc         1 CYH       0.038200
      6 H1           0.0000     2.4990     0.1460 hc         1 CYH       0.038200
      7 H2           1.3290     0.7670     1.3280 hc         1 CYH       0.038200
      8 H3           2.1640     1.2490    -0.1460 hc         1 CYH       0.038200
      9 C4           0.0000    -1.4670     0.2290 c3         1 CYH      -0.076400
     10 H4           1.3290    -0.7670    -1.3280 hc         1 CYH       0.038200
     11 H5           2.1640    -1.2490     0.1460 hc         1 CYH       0.038200
     12 C5          -1.2710    -0.7340    -0.2290 c3         1 CYH      -0.076400
     13 H6          -1.3290     0.7670     1.3280 hc         1 CYH       0.038200
     14 H7          -2.1640     1.2490    -0.1460 hc         1 CYH       0.038200
     15 H8           0.0000    -1.5350     1.3280 hc         1 CYH       0.038200
     16 H9           0.0000    -2.4990    -0.1460 hc         1 CYH       0.038200
     17 H10         -1.3290    -0.7670    -1.3280 hc         1 CYH       0.038200
     18 H11         -2.1640    -1.2490     0.1460 hc         1 CYH       0.038200
@<TRIPOS>BOND
     1     1     2 1   
     2     1     3 1   
     3     1     7 1   
     4     1     8 1   
     5     2     4 1   
     6     2     5 1   
     7     2     6 1   
     8     3     9 1   
     9     3    10 1   
    10     3    11 1   
    11     4    12 1   
    12     4    13 1   
    13     4    14 1   
    14     9    12 1   
    15     9    15 1   
    16     9    16 1   
    17    12    17 1   
    18    12    18 1   
@<TRIPOS>SUBSTRUCTURE
     1 CYH         1 TEMP              0 ****  ****    0 ROOT
