@<TRIPOS>MOLECULE
BEN
   12    12     1     0     0
SMALL
bcc


@<TRIPOS>ATOM
      1 C            0.0000     1.3970     0.0000 ca         1 BEN      -0.130000
      2 C1           1.2100     0.6980     0.0000 ca         1 BEN      -0.130000
      3 C2          -1.2100     0.6980     0.0000 ca         1 BEN      -0.130000
      4 C3           1.2100    -0.6980     0.0000 ca         1 BEN      -0.130000
      5 H            2.1510     1.2420     0.0000 ha         1 BEN       0.130000
      6 H1           0.0000     2.4840     0.0000 ha         1 BEN       0.130000
      7 C4          -1.2100    -0.6980     0.0000 ca         1 BEN      -0.130000
      8 H2          -2.1510     1.2420     0.0000 ha         1 BEN       0.130000
      9 C5           0.0000    -1.3970     0.0000 ca         1 BEN      -0.130000
     10 H3           2.1510    -1.2420     0.0000 ha         1 BEN       0.130000
     11 H4          -2.1510    -1.2420     0.0000 ha         1 BEN       0.130000
     12 H5           0.0000    -2.4840     0.0000 ha         1 BEN       0.130000
@<TRIPOS>BOND
     1     1     2 ar  
     2     1     3 ar  
     3     1     6 1   
     4     2     4 ar  
     5     2     5 1   
     6     3     7 ar  
     7     3     8 1   
     8     4     9 ar  
     9     4    10 1   
    10     7     9 ar  
    11     7    11 1   
    12     9    12 1   
@<TRIPOS>SUBSTRUCTURE
     1 BEN         1 TEMP              0 ****  ****    0 ROOT
