@<TRIPOS>MOLECULE
ACN
    6     5     1     0     0
SMALL
bcc


@<TRIPOS>ATOM
      1 C            0.9570     0.0450     0.0780 c3         1 ACN      -0.045000
      2 C1           2.4770     0.0450     0.0780 c1         1 ACN       0.208700
      3 N            3.7370     0.0450     0.0780 n1         1 ACN      -0.375800
      4 H            0.5840    -0.4120    -0.8430 hc         1 ACN       0.070700
      5 H1           0.5840     1.0710     0.1430 hc         1 ACN       0.070700
      6 H2           0.5840    -0.5240     0.9340 hc         1 ACN       0.070700
@<TRIPOS>BOND
     1     1     2 1   
     2     1     4 1   
     3     1     5 1   
     4     1     6 1   
     5     2     3 3   
@<TRIPOS>SUBSTRUCTURE
     1 ACN         1 TEMP              0 ****  ****    0 ROOT
